reduced_networks/european_lv/98pct/dss/Branches.dss
! Radial Kron-equivalent series elements
new Reactor.kr_2_3 phases=3 bus1=1.1.2.3 bus2=15.1.2.3 rmatrix=[0.01330082595899975 | 0.005876334872999733 0.01330082595900066 | 0.005876334872999204 0.005876334872999316 0.01330082595899826] xmatrix=[0.001248513074998408 | 6.658736399694553e-05 0.001248513074998096 | 6.65873639983952e-05 6.658736399843546e-05 0.001248513074998266]
new Reactor.kr_3_4 phases=3 bus1=15.1.2.3 bus2=37.1.2.3 rmatrix=[0.02066477669997354 | 0.009129744899957411 0.02066477669996683 | 0.009129744899990844 0.009129744900001254 0.02066477669999319] xmatrix=[0.001939747499980034 | 0.000103453199961258 0.001939747499986939 | 0.0001034531999785031 0.0001034531999923221 0.00193974749999162]
new Reactor.kr_4_5 phases=3 bus1=37.1.2.3 bus2=43.1.2.3 rmatrix=[6.589200000000046e-05 | 2.991150000000007e-05 6.58919999999998e-05 | 2.991150000000077e-05 2.991150000000009e-05 6.589200000000039e-05] xmatrix=[1.546150000000052e-05 | 7.225000000003765e-07 1.546150000000021e-05 | 7.225000000002583e-07 7.225000000002095e-07 1.546150000000014e-05]
new Reactor.kr_4_6 phases=3 bus1=37.1.2.3 bus2=101.1.2.3 rmatrix=[0.02117925279996758 | 0.009357041599994294 0.02117925279998527 | 0.009357041599974327 0.009357041599975493 0.02117925279998892] xmatrix=[0.001988040000011428 | 0.0001060288000372061 0.001988040000025011 | 0.0001060288000291782 0.0001060288000275412 0.001988040000012253]
new Reactor.kr_6_7 phases=3 bus1=101.1.2.3 bus2=114.1.2.3 rmatrix=[0.00702953808000498 | 0.003105665760006273 0.007029538080003851 | 0.003105665760004641 0.003105665760001516 0.007029538080003683] xmatrix=[0.0006598439999946994 | 3.519167999761205e-05 0.000659843999996407 | 3.519167999811844e-05 3.519167999921325e-05 0.00065984399999863]
new Reactor.kr_7_8 phases=3 bus1=114.1.2.3 bus2=133.1.2.3 rmatrix=[0.00188046742333349 | 0.0008702364333335013 0.001880467423333157 | 0.0008702364333335729 0.0008702364333334019 0.001880467423333704] xmatrix=[0.0007983473366660907 | 3.216091166629567e-05 0.0007983473366666866 | 3.216091166619226e-05 3.216091166613271e-05 0.0007983473366663177]
new Reactor.kr_7_9 phases=3 bus1=114.1.2.3 bus2=215.1.2.3 rmatrix=[0.01207132116666162 | 0.005486964166659103 0.01207132116665792 | 0.005486964166659506 0.005486964166657695 0.01207132116665986] xmatrix=[0.001802287500005916 | 4.806100001033781e-05 0.001802287500006412 | 4.806100000943422e-05 4.806100000812963e-05 0.001802287500008268]
new Reactor.kr_9_10 phases=3 bus1=215.1.2.3 bus2=280.1.2.3 rmatrix=[0.00663945018000304 | 0.003017931900001743 0.006639450180001645 | 0.003017931900000215 0.003017931900000276 0.00663945017999863] xmatrix=[0.0009912915000050092 | 2.643444000263584e-05 0.0009912915000036765 | 2.643444000449583e-05 2.643444000330938e-05 0.0009912915000027064]
new Reactor.kr_10_11 phases=3 bus1=280.1.2.3 bus2=373.1.2.3 rmatrix=[0.003667894332666665 | 0.001667224696667375 0.003667894332667452 | 0.001667224696667894 0.00166722469666752 0.003667894332667656] xmatrix=[0.0005476285499998538 | 1.460342799995884e-05 0.0005476285499995725 | 1.460342800062948e-05 1.460342799962909e-05 0.000547628550000167]
new Reactor.kr_10_13 phases=3 bus1=280.1.2.3 bus2=425.1.2.3 rmatrix=[0.03454361797338167 | 0.01524910805335007 0.0345436179733447 | 0.01524910805340943 0.01524910805337027 0.03454361797341599] xmatrix=[0.003304887626734482 | 0.0002194116266255333 0.003304887626645293 | 0.0002194116266218465 0.0002194116266102442 0.003304887626688614]
new Reactor.kr_11_12 phases=3 bus1=373.1.2.3 bus2=397.1.2.3 rmatrix=[0.005149122623336508 | 0.002340510283336858 0.005149122623338946 | 0.002340510283335823 0.002340510283334011 0.00514912262333357] xmatrix=[0.0007687807500004182 | 2.050082000083192e-05 0.0007687807500025528 | 2.050082000101703e-05 2.050082000169373e-05 0.0007687807499987962]
new Reactor.kr_12_15 phases=3 bus1=397.1.2.3 bus2=578.1.2.3 rmatrix=[0.01324475726568333 | 0.006020344211682131 0.01324475726567787 | 0.006020344211677257 0.006020344211672388 0.01324475726567781] xmatrix=[0.001977485324994193 | 5.273294199480748e-05 0.001977485324994366 | 5.273294199524505e-05 5.27329419949703e-05 0.001977485324995645]
new Reactor.kr_13_14 phases=3 bus1=425.1.2.3 bus2=490.1.2.3 rmatrix=[0.03944619653340422 | 0.01741332693344921 0.03944619653343972 | 0.01741332693344759 0.01741332693342366 0.03944619653346199] xmatrix=[0.0037739314667281 | 0.0002505514665904676 0.003773931466611783 | 0.0002505514666859073 0.000250551466724876 0.00377393146672523]
new Reactor.kr_15_16 phases=3 bus1=578.1.2.3 bus2=623.1.2.3 rmatrix=[0.006241571000000314 | 8.916529999929974e-05 0.006241570999999976 | 8.916529999964895e-05 8.916530000021733e-05 0.006241571000000277] xmatrix=[0.0004707927839998709 | -6.132302074286864e-17 0.0004707927839999006 | -3.023234668990005e-16 1.397265549790694e-16 0.0004707927839997052]
new Reactor.kr_15_17 phases=3 bus1=578.1.2.3 bus2=666.1.2.3 rmatrix=[0.008320990919998689 | 0.003782268600000162 0.008320990920000276 | 0.003782268599998396 0.003782268599999858 0.008320990919999461] xmatrix=[0.001242351000000788 | 3.312936000064452e-05 0.001242351000001046 | 3.312936000181108e-05 3.312936000025222e-05 0.001242351000001083]
new Reactor.kr_17_18 phases=3 bus1=666.1.2.3 bus2=689.1.2.3 rmatrix=[0.001512921666666642 | 2.16131666667005e-05 0.001512921666666659 | 2.161316666667007e-05 2.161316666664142e-05 0.001512921666666682] xmatrix=[0.000114117520000027 | 3.84074623334691e-18 0.0001141175199999965 | -3.156044281721704e-17 1.040834085586084e-17 0.0001141175200000143]
new Reactor.kr_17_19 phases=3 bus1=666.1.2.3 bus2=707.1.2.3 rmatrix=[0.01855595672332703 | 0.008338486983337249 0.01855595672333939 | 0.008338486983336085 0.008338486983334739 0.01855595672333451] xmatrix=[0.002377302516665399 | 9.125568666512634e-05 0.002377302516668675 | 9.125568666364354e-05 9.125568666883523e-05 0.002377302516665337]
new Reactor.kr_19_20 phases=3 bus1=707.1.2.3 bus2=733.1.2.3 rmatrix=[0.005482050000000145 | 7.831499999988557e-05 0.005482050000000033 | 7.831500000001629e-05 7.831500000014775e-05 0.005482049999999619] xmatrix=[0.000413503200000046 | 4.499555759422822e-16 0.0004135031999999158 | 1.377275358022926e-16 1.338989683019598e-16 0.0004135031999998514]
new Reactor.kr_19_21 phases=3 bus1=707.1.2.3 bus2=779.1.2.3 rmatrix=[0.03812212616664611 | 0.01682882266665967 0.038122126166662 | 0.01682882266666549 0.01682882266665851 0.03812212616667541] xmatrix=[0.003647253833349361 | 0.0002421413333497097 0.003647253833360436 | 0.0002421413333349099 0.0002421413333475076 0.00364725383333921]
